data/11000.trafo_75594672_75594672/Loads.dss
New Load.1 bus1=3105011.1 kV=0.23094010767585033 Vminpu=0.7 Vmaxpu=1.3 model=1 kW=0.0 kvar=0.0 Phases=1
New Load.2 bus1=3105013.1 kV=0.23094010767585033 Vminpu=0.7 Vmaxpu=1.3 model=1 kW=0.0 kvar=0.0 Phases=1
New Load.3 bus1=3105020.1 kV=0.23094010767585033 Vminpu=0.7 Vmaxpu=1.3 model=1 kW=0.0 kvar=0.0 Phases=1
New Load.4 bus1=3105021.3 kV=0.23094010767585033 Vminpu=0.7 Vmaxpu=1.3 model=1 kW=0.0 kvar=0.0 Phases=1
New Load.5 bus1=3105022.3 kV=0.23094010767585033 Vminpu=0.7 Vmaxpu=1.3 model=1 kW=0.0 kvar=0.0 Phases=1
New Load.6 bus1=3105033.3 kV=0.23094010767585033 Vminpu=0.7 Vmaxpu=1.3 model=1 kW=0.0 kvar=0.0 Phases=1
New Load.7 bus1=3105039.3 kV=0.23094010767585033 Vminpu=0.7 Vmaxpu=1.3 model=1 kW=0.0 kvar=0.0 Phases=1
New Load.8 bus1=3105048.1 kV=0.23094010767585033 Vminpu=0.7 Vmaxpu=1.3 model=1 kW=0.0 kvar=0.0 Phases=1
New Load.9 bus1=3105351.1 kV=0.23094010767585033 Vminpu=0.7 Vmaxpu=1.3 model=1 kW=0.0 kvar=0.0 Phases=1
New Load.10 bus1=3105385.3 kV=0.23094010767585033 Vminpu=0.7 Vmaxpu=1.3 model=1 kW=0.0 kvar=0.0 Phases=1
New Load.11 bus1=3105389.3 kV=0.23094010767585033 Vminpu=0.7 Vmaxpu=1.3 model=1 kW=0.0 kvar=0.0 Phases=1
New Load.12 bus1=3105396.1 kV=0.23094010767585033 Vminpu=0.7 Vmaxpu=1.3 model=1 kW=0.0 kvar=0.0 Phases=1
New Load.13 bus1=3105645.3 kV=0.23094010767585033 Vminpu=0.7 Vmaxpu=1.3 model=1 kW=0.0 kvar=0.0 Phases=1
New Load.14 bus1=3104925.3 kV=0.23094010767585033 Vminpu=0.7 Vmaxpu=1.3 model=1 kW=2.7801163557510353 kvar=0.564526703605494 Phases=1
New Load.15 bus1=3104926.3 kV=0.23094010767585033 Vminpu=0.7 Vmaxpu=1.3 model=1 kW=2.8735283065134456 kvar=0.5834948092145184 Phases=1
New Load.16 bus1=3104927.3 kV=0.23094010767585033 Vminpu=0.7 Vmaxpu=1.3 model=1 kW=2.979395087889435 kvar=0.6049919760463599 Phases=1
New Load.17 bus1=3104928.1 kV=0.23094010767585033 Vminpu=0.7 Vmaxpu=1.3 model=1 kW=1.446486633795933 kvar=0.2937216384835914 Phases=1
New Load.18 bus1=3104929.1 kV=0.23094010767585033 Vminpu=0.7 Vmaxpu=1.3 model=1 kW=1.8656328743308876 kvar=0.3788329126963975 Phases=1
New Load.19 bus1=3104930.2 kV=0.23094010767585033 Vminpu=0.7 Vmaxpu=1.3 model=1 kW=1.5620758957111338 kvar=0.3171930391917653 Phases=1
New Load.20 bus1=3105011.1 kV=0.23094010767585033 Vminpu=0.7 Vmaxpu=1.3 model=1 kW=1.980141837736634 kvar=0.4020849494361565 Phases=1
New Load.21 bus1=3105012.2 kV=0.23094010767585033 Vminpu=0.7 Vmaxpu=1.3 model=1 kW=1.6506583130276098 kvar=0.33518046620777125 Phases=1
New Load.22 bus1=3105013.1 kV=0.23094010767585033 Vminpu=0.7 Vmaxpu=1.3 model=1 kW=1.4648512963649005 kvar=0.2974507422678414 Phases=1
New Load.23 bus1=3105014.2 kV=0.23094010767585033 Vminpu=0.7 Vmaxpu=1.3 model=1 kW=2.774143110148305 kvar=0.5633137843537656 Phases=1
New Load.24 bus1=3105015.1 kV=0.23094010767585033 Vminpu=0.7 Vmaxpu=1.3 model=1 kW=4.004574884131507 kvar=0.8131636123803163 Phases=1
New Load.25 bus1=3105016.1 kV=0.23094010767585033 Vminpu=0.7 Vmaxpu=1.3 model=1 kW=2.037396422462444 kvar=0.4137109887257356 Phases=1
New Load.26 bus1=3105017.1 kV=0.23094010767585033 Vminpu=0.7 Vmaxpu=1.3 model=1 kW=5.2123210075538 kvar=1.0584069225883574 Phases=1
New Load.27 bus1=3105018.3 kV=0.23094010767585033 Vminpu=0.7 Vmaxpu=1.3 model=1 kW=3.0247665950571263 kvar=0.6142050535227773 Phases=1
New Load.28 bus1=3105019.2 kV=0.23094010767585033 Vminpu=0.7 Vmaxpu=1.3 model=1 kW=2.016871162874569 kvar=0.4095431570046565 Phases=1
New Load.29 bus1=3105020.1 kV=0.23094010767585033 Vminpu=0.7 Vmaxpu=1.3 model=1 kW=2.07520584006396 kvar=0.4213885184232513 Phases=1
New Load.30 bus1=3105021.3 kV=0.23094010767585033 Vminpu=0.7 Vmaxpu=1.3 model=1 kW=2.5688911324071744 kvar=0.521635592661171 Phases=1
New Load.31 bus1=3105022.3 kV=0.23094010767585033 Vminpu=0.7 Vmaxpu=1.3 model=1 kW=5.266334696751248 kvar=1.069374869972693 Phases=1
New Load.32 bus1=3105023.3 kV=0.23094010767585033 Vminpu=0.7 Vmaxpu=1.3 model=1 kW=2.617503329057355 kvar=0.5315067202034335 Phases=1
New Load.33 bus1=3105024.1 kV=0.23094010767585033 Vminpu=0.7 Vmaxpu=1.3 model=1 kW=1.613928987889675 kvar=0.3277222586392714 Phases=1
New Load.34 bus1=3105025.1 kV=0.23094010767585033 Vminpu=0.7 Vmaxpu=1.3 model=1 kW=1.409757308657998 kvar=0.2862634309150915 Phases=1
New Load.35 bus1=3105026.1 kV=0.23094010767585033 Vminpu=0.7 Vmaxpu=1.3 model=1 kW=1.5512731166624694 kvar=0.3149994413470184 Phases=1
New Load.36 bus1=3105027.1 kV=0.23094010767585033 Vminpu=0.7 Vmaxpu=1.3 model=1 kW=2.0255133449043257 kvar=0.41129802691257417 Phases=1
New Load.37 bus1=3104850.1.3 kV=0.4 Vminpu=0.7 Vmaxpu=1.3 model=1 kW=0.9506409504796842 kvar=0.19303587814824139 Phases=2
New Load.38 bus1=3105029.1 kV=0.23094010767585033 Vminpu=0.7 Vmaxpu=1.3 model=1 kW=2.919980112190591 kvar=0.5929272506593507 Phases=1
New Load.39 bus1=3105030.3 kV=0.23094010767585033 Vminpu=0.7 Vmaxpu=1.3 model=1 kW=1.9056028889513112 kvar=0.3869491703307422 Phases=1
New Load.40 bus1=3105031.3 kV=0.23094010767585033 Vminpu=0.7 Vmaxpu=1.3 model=1 kW=4.701351557196944 kvar=0.9546501503740015 Phases=1
New Load.41 bus1=3105032.3 kV=0.23094010767585033 Vminpu=0.7 Vmaxpu=1.3 model=1 kW=4.703512154215852 kvar=0.9550888783108304 Phases=1
New Load.42 bus1=3105033.3 kV=0.23094010767585033 Vminpu=0.7 Vmaxpu=1.3 model=1 kW=3.838212622501346 kvar=0.779382314353652 Phases=1
New Load.43 bus1=3105034.1 kV=0.23094010767585033 Vminpu=0.7 Vmaxpu=1.3 model=1 kW=3.789600631897038 kvar=0.7695112286507884 Phases=1
New Load.44 bus1=3105035.3 kV=0.23094010767585033 Vminpu=0.7 Vmaxpu=1.3 model=1 kW=1.3762687760254881 kvar=0.2794632943321359 Phases=1
New Load.45 bus1=3105036.3 kV=0.23094010767585033 Vminpu=0.7 Vmaxpu=1.3 model=1 kW=2.5310815087597853 kvar=0.5139580211242566 Phases=1
New Load.46 bus1=3105037.3 kV=0.23094010767585033 Vminpu=0.7 Vmaxpu=1.3 model=1 kW=1.5188649855623495 kvar=0.3084186896521767 Phases=1
New Load.47 bus1=3105038.1 kV=0.23094010767585033 Vminpu=0.7 Vmaxpu=1.3 model=1 kW=0.9203933133755353 kvar=0.18689383347052949 Phases=1
New Load.48 bus1=3105039.3 kV=0.23094010767585033 Vminpu=0.7 Vmaxpu=1.3 model=1 kW=4.2660013541348665 kvar=0.8662485212334741 Phases=1
New Load.49 bus1=3105040.1 kV=0.23094010767585033 Vminpu=0.7 Vmaxpu=1.3 model=1 kW=5.446740220866689 kvar=1.1060077740705498 Phases=1
New Load.50 bus1=3105041.1 kV=0.23094010767585033 Vminpu=0.7 Vmaxpu=1.3 model=1 kW=2.563489639859905 kvar=0.5205387728190981 Phases=1
New Load.51 bus1=3105042.3 kV=0.23094010767585033 Vminpu=0.7 Vmaxpu=1.3 model=1 kW=2.1302998277708625 kvar=0.4325758297760011 Phases=1
New Load.52 bus1=3105043.3 kV=0.23094010767585033 Vminpu=0.7 Vmaxpu=1.3 model=1 kW=2.756858746088791 kvar=0.5598040445379302 Phases=1
New Load.53 bus1=3105044.3 kV=0.23094010767585033 Vminpu=0.7 Vmaxpu=1.3 model=1 kW=2.271815841821206 kvar=0.4613118820473268 Phases=1
New Load.54 bus1=3105047.3 kV=0.23094010767585033 Vminpu=0.7 Vmaxpu=1.3 model=1 kW=3.842533816539161 kvar=0.7802597702273104 Phases=1
New Load.55 bus1=3105048.1 kV=0.23094010767585033 Vminpu=0.7 Vmaxpu=1.3 model=1 kW=3.4763210697151377 kvar=0.7058971003501244 Phases=1
New Load.56 bus1=3105049.2 kV=0.23094010767585033 Vminpu=0.7 Vmaxpu=1.3 model=1 kW=2.443579389952763 kvar=0.4961899580766651 Phases=1
New Load.57 bus1=3105050.3 kV=0.23094010767585033 Vminpu=0.7 Vmaxpu=1.3 model=1 kW=3.034489075596338 kvar=0.6161792873991098 Phases=1
New Load.58 bus1=3105351.1 kV=0.23094010767585033 Vminpu=0.7 Vmaxpu=1.3 model=1 kW=1.8137797821523456 kvar=0.3683036932488912 Phases=1
New Load.59 bus1=3105361.1 kV=0.23094010767585033 Vminpu=0.7 Vmaxpu=1.3 model=1 kW=2.563489639859905 kvar=0.5205387728190981 Phases=1
New Load.60 bus1=3105385.3 kV=0.23094010767585033 Vminpu=0.7 Vmaxpu=1.3 model=1 kW=3.4104243029595707 kvar=0.6925161911526277 Phases=1
New Load.61 bus1=3105389.3 kV=0.23094010767585033 Vminpu=0.7 Vmaxpu=1.3 model=1 kW=3.5940709286492454 kvar=0.7298072289951273 Phases=1
New Load.62 bus1=3105393.1 kV=0.23094010767585033 Vminpu=0.7 Vmaxpu=1.3 model=1 kW=3.3531699242796345 kvar=0.6808901937024477 Phases=1
New Load.63 bus1=3105396.1 kV=0.23094010767585033 Vminpu=0.7 Vmaxpu=1.3 model=1 kW=1.6020460133544931 kvar=0.3253093177458094 Phases=1
New Load.64 bus1=3105401.3 kV=0.23094010767585033 Vminpu=0.7 Vmaxpu=1.3 model=1 kW=1.742481522849511 kvar=0.3538259642093216 Phases=1
New Load.65 bus1=3105422.1 kV=0.23094010767585033 Vminpu=0.7 Vmaxpu=1.3 model=1 kW=2.438177897405495 kvar=0.49509313823459217 Phases=1
New Load.66 bus1=3105427.3 kV=0.23094010767585033 Vminpu=0.7 Vmaxpu=1.3 model=1 kW=1.388151853583606 kvar=0.2818762561452973 Phases=1
New Load.67 bus1=3105429.1 kV=0.23094010767585033 Vminpu=0.7 Vmaxpu=1.3 model=1 kW=1.4216402831931798 kvar=0.2886763718085535 Phases=1
New Load.68 bus1=3105432.1 kV=0.23094010767585033 Vminpu=0.7 Vmaxpu=1.3 model=1 kW=1.4400049457621473 kvar=0.29240547559280344 Phases=1
New Load.69 bus1=3105436.1 kV=0.23094010767585033 Vminpu=0.7 Vmaxpu=1.3 model=1 kW=2.7330925909725554 kvar=0.5549781209116073 Phases=1
New Load.70 bus1=3105443.1 kV=0.23094010767585033 Vminpu=0.7 Vmaxpu=1.3 model=1 kW=1.947733706636514 kvar=0.3955041977413149 Phases=1
New Load.71 bus1=3105450.3 kV=0.23094010767585033 Vminpu=0.7 Vmaxpu=1.3 model=1 kW=1.4670117903608717 kvar=0.29788944928497113 Phases=1
New Load.72 bus1=3105466.1 kV=0.23094010767585033 Vminpu=0.7 Vmaxpu=1.3 model=1 kW=2.9491473477623495 kvar=0.5988499104489484 Phases=1
New Load.73 bus1=3105471.3 kV=0.23094010767585033 Vminpu=0.7 Vmaxpu=1.3 model=1 kW=3.062576218704516 kvar=0.6218826250596919 Phases=1
New Load.74 bus1=3105549.3 kV=0.23094010767585033 Vminpu=0.7 Vmaxpu=1.3 model=1 kW=2.2599327642630884 kvar=0.45889892023416534 Phases=1
New Load.75 bus1=3105607.3 kV=0.23094010767585033 Vminpu=0.7 Vmaxpu=1.3 model=1 kW=5.07404609507769 kvar=1.0303290040616746 Phases=1
New Load.76 bus1=3105614.2 kV=0.23094010767585033 Vminpu=0.7 Vmaxpu=1.3 model=1 kW=3.1878879611589266 kvar=0.6473282596441979 Phases=1
New Load.77 bus1=3105616.1 kV=0.23094010767585033 Vminpu=0.7 Vmaxpu=1.3 model=1 kW=3.931116233855637 kvar=0.7982471972433164 Phases=1
New Load.78 bus1=3105645.3 kV=0.23094010767585033 Vminpu=0.7 Vmaxpu=1.3 model=1 kW=2.07520584006396 kvar=0.4213885184232513 Phases=1
New Load.79 bus1=3105767.2 kV=0.23094010767585033 Vminpu=0.7 Vmaxpu=1.3 model=1 kW=0.4526347216559962 kvar=0.09191140033591189 Phases=1
New Load.80 bus1=3105806.3 kV=0.23094010767585033 Vminpu=0.7 Vmaxpu=1.3 model=1 kW=2.7801163557510353 kvar=0.564526703605494 Phases=1
New Load.81 bus1=3105828.1 kV=0.23094010767585033 Vminpu=0.7 Vmaxpu=1.3 model=1 kW=2.7801163557510353 kvar=0.564526703605494 Phases=1
New Load.82 bus1=3105839.1 kV=0.23094010767585033 Vminpu=0.7 Vmaxpu=1.3 model=1 kW=2.7801163557510353 kvar=0.564526703605494 Phases=1
New Load.83 bus1=3105847.1 kV=0.23094010767585033 Vminpu=0.7 Vmaxpu=1.3 model=1 kW=2.7801163557510353 kvar=0.564526703605494 Phases=1
